OpenDSS/G-Version_0708225/master.dss
Clear 

set defaultbasefrequency=60

new circuit.ColTestCKT basekv=66 pu=1.0010 phases=3 bus1=Main01

redirect Transformers.dss
redirect Regulators.dss
redirect Lines.dss
redirect Loads.dss
redirect Capacitors.dss
redirect DER.dss

new energymeter.FH element=transformer.Sub_Xfmr terminal=1
set earthmodel=Deri

Set Voltagebases=[66, 13.2]
calcv

Solve

buscoords BusCoords.dss
GISCoords GISCoords.dss

!plot circuit